! HF DEF2-TZVP
%output Print [ P_Overlap ] 1 end
* xyz 0 9
67      -0.481889388     -1.733341381     -3.682293394
17       1.462607525     -1.387897367     -1.824387550
8       -1.042797659     -3.499968536     -2.230510594
6       -2.284869403     -2.085372947     -5.463509319
1       -3.342770760     -2.299044365     -5.373892141
6       -1.499129610     -3.264570617     -5.447822103
1       -2.105421313     -4.156482419     -5.345554683
6       -0.121077813     -3.543898323     -5.437587113
1        0.091256813     -4.600578287     -5.328336195
6        1.054310808     -2.754476442     -5.450685545
1        1.953958211     -3.347095307     -5.345305083
6        1.317518617     -1.367649452     -5.464707977
1        2.373285392     -1.156832022     -5.351514667
6        0.537741972     -0.200516938     -5.455007178
1        1.139656427      0.694848659     -5.362154885
6       -0.842236244      0.071977637     -5.441906097
1       -1.056469768      1.127650554     -5.332407351
6       -2.011841765     -0.710455989     -5.451435287
1       -2.906065569     -0.113220377     -5.328293006
6       -2.384808016     -3.942023166     -1.930255185
1       -2.726976151     -4.605691242     -2.730062824
1       -3.026495558     -3.063430970     -1.899906796
6       -2.260246622     -4.666369532     -0.593346095
1       -2.924298865     -5.528702975     -0.550748051
1       -2.533268022     -4.004056473      0.226503072
6       -0.777758239     -5.059390496     -0.503836423
1       -0.294915330     -4.550335370      0.329298667
1       -0.632916812     -6.129445408     -0.360739934
6       -0.184105786     -4.592848134     -1.819647783
1        0.830704994     -4.207691351     -1.740267679
1       -0.212381523     -5.370820060     -2.588983431
67      -0.000656727     -0.002194535      0.000791936
17      -1.945154219     -0.347637953     -1.857113348
8        0.560251545      1.764432622     -1.450990866
6        1.802322501      0.349836814      1.782007280
1        2.860226425      0.563324429      1.691610507
6        1.016583493      1.529034701      1.766320645
1        1.622936152      2.421130904      1.665749317
6       -0.361468304      1.808362406      1.756085655
1       -0.573345367      2.865007085      1.645787698
6       -1.536856924      1.018940526      1.769184086
1       -2.436614001      1.611837121      1.666770211
6       -1.800064732     -0.367886465      1.783206517
1       -2.856165701     -0.578694231      1.673806699
6       -1.020288089     -1.535018977      1.773505719
1       -1.622233619     -2.430586917      1.683134676
6        0.359690127     -1.807513553      1.760404638
1        0.574218727     -2.863452308      1.654239691
6        1.529295648     -1.025079927      1.769933829
1        2.423829439     -1.622078836      1.647725670
6        1.902261901      2.206487255     -1.751246275
1        2.244137190      2.870416848     -0.951297748
1        2.544420703      1.328164581     -1.780320090
6        1.777700502      2.930833615     -3.088155368
1        2.441711426      3.793302956     -3.129523603
1        2.051608428      2.268798651     -3.907793541
6        0.295211332      3.323854357     -3.177665617
1       -0.187803034      2.815248409     -4.010788242
1        0.150800100      4.394093152     -3.319700503
6       -0.298440330      2.857312219     -1.861853674
1       -1.313455439      2.472538473     -1.939730683
1       -0.269219442      3.635276361     -1.092328316
*
